@<TRIPOS>MOLECULE
cAbl-ponatinib.mae_ligand
   67    71     1     0     0
SMALL
No Charge or Current Charge


@<TRIPOS>ATOM
      1 N1         -43.6060   -11.9130   -54.1300 nc         1 0LI      -0.527300
      2 N3         -44.5900     2.3940   -62.1180 n4         1 0LI      -0.439300
      3 C4         -41.4810    -8.2820   -56.5830 cg         1 0LI      -0.162700
      4 C5         -40.9320    -7.0270   -57.0750 ca         1 0LI       0.092200
      5 C6         -39.5900    -6.6560   -56.8880 ca         1 0LI      -0.027500
      6 C7         -39.1390    -5.4400   -57.4060 ca         1 0LI      -0.132600
      7 C8         -40.0150    -4.5780   -58.0640 ca         1 0LI      -0.088100
      8 C10        -41.8000    -6.1600   -57.7310 ca         1 0LI      -0.074100
      9 C13        -42.8090    -1.6490   -59.4770 ca         1 0LI       0.092700
     10 C15        -42.9400     0.4990   -60.5650 ca         1 0LI      -0.103900
     11 C17        -44.9250    -0.4270   -59.5240 ca         1 0LI      -0.070200
     12 C20        -45.0840     1.8190   -60.7740 c3         1 0LI       0.082600
     13 C21        -44.8090     1.4020   -63.2800 c3         1 0LI       0.064400
     14 C22        -44.2010     2.0040   -64.5600 c3         1 0LI       0.043800
     15 C24        -45.2240     3.7630   -62.4410 c3         1 0LI       0.064400
     16 C81        -43.8750   -13.7920   -55.7800 cd         1 0LI      -0.125700
     17 C82        -43.6380   -14.1200   -57.1150 cc         1 0LI      -0.191300
     18 C83        -43.0240   -13.1850   -57.9470 cc         1 0LI       0.025600
     19 N81        -42.6230   -11.9520   -57.5600 nd         1 0LI      -0.453500
     20 N82        -42.8800   -11.6650   -56.2730 na         1 0LI       0.471900
     21 C84        -43.4930   -12.5140   -55.3350 cd         1 0LI       0.262600
     22 C1         -43.1280   -10.7070   -54.3270 cc         1 0LI       0.068600
     23 C2         -42.6210   -10.4900   -55.6040 cd         1 0LI      -0.116400
     24 C3         -41.9950    -9.3020   -56.1550 ch         1 0LI      -0.077400
     25 C9         -41.3660    -4.9180   -58.2130 ca         1 0LI      -0.185800
     26 C11        -38.6140    -7.5290   -56.1140 c3         1 0LI      -0.133800
     27 C12        -42.3770    -3.9890   -58.8380 c          1 0LI       0.560500
     28 O1         -43.5160    -4.3940   -59.0490 o          1 0LI      -0.484200
     29 N2         -41.9890    -2.7260   -59.0990 n          1 0LI      -0.426200
     30 C14        -42.2080    -0.6170   -60.1830 ca         1 0LI      -0.089600
     31 C16        -44.3060     0.5980   -60.2700 ca         1 0LI      -0.118300
     32 C18        -44.1620    -1.5340   -59.1280 ca         1 0LI      -0.072700
     33 C19        -46.3960    -0.3510   -59.1010 c3         1 0LI       0.463100
     34 F1         -47.1770    -0.5220   -60.1660 f          1 0LI      -0.170100
     35 F2         -46.7150    -1.2810   -58.2030 f          1 0LI      -0.170100
     36 F3         -46.6590     0.8350   -58.5530 f          1 0LI      -0.170100
     37 C23        -44.6020     4.2860   -63.7520 c3         1 0LI       0.043800
     38 C25        -44.2150     3.8530   -66.0920 c3         1 0LI       0.045900
     39 N4         -44.7640     3.3250   -64.8500 n3         1 0LI      -0.695700
     40 HN3        -43.5940     2.5390   -62.0330 hn         1 0LI       0.309500
     41 H7         -38.1080    -5.1460   -57.2870 ha         1 0LI       0.146500
     42 H8         -39.6250    -3.6410   -58.4330 ha         1 0LI       0.138000
     43 H10        -42.8360    -6.4520   -57.8470 ha         1 0LI       0.143900
     44 H15        -42.4330     1.2780   -61.1130 ha         1 0LI       0.144900
     45 H201       -46.1450     1.6270   -60.9310 hx         1 0LI       0.128300
     46 H202       -44.9730     2.6380   -60.0680 hx         1 0LI       0.128300
     47 H211       -45.8810     1.2200   -63.3720 hx         1 0LI       0.129500
     48 H212       -44.3190     0.4680   -63.0120 hx         1 0LI       0.129500
     49 H221       -44.3960     1.3300   -65.3950 h1         1 0LI       0.103400
     50 H222       -43.1160     2.0670   -64.4610 h1         1 0LI       0.103400
     51 H241       -45.0140     4.4280   -61.6020 hx         1 0LI       0.129500
     52 H242       -46.3030     3.6200   -62.5210 hx         1 0LI       0.129500
     53 H81        -44.3400   -14.5000   -55.1120 ha         1 0LI       0.172100
     54 H82        -43.9190   -15.0890   -57.5000 ha         1 0LI       0.160500
     55 H83        -42.8120   -13.4120   -58.9740 h4         1 0LI       0.182200
     56 H1         -43.1310    -9.9780   -53.5350 h4         1 0LI       0.168800
     57 H111       -37.7420    -6.9610   -55.7930 hc         1 0LI       0.082200
     58 H112       -39.0770    -7.9280   -55.2140 hc         1 0LI       0.082200
     59 H113       -38.2820    -8.3650   -56.7270 hc         1 0LI       0.082200
     60 HN2        -41.0030    -2.5200   -59.0280 hn         1 0LI       0.323000
     61 H14        -41.1670    -0.6870   -60.4390 ha         1 0LI       0.169100
     62 H18        -44.6240    -2.3030   -58.5300 ha         1 0LI       0.176700
     63 H231       -43.5440     4.5070   -63.5990 h1         1 0LI       0.103400
     64 H232       -45.0810     5.2280   -64.0180 h1         1 0LI       0.103400
     65 H251       -44.6990     4.7940   -66.3550 h1         1 0LI       0.084700
     66 H252       -43.1420     4.0300   -66.0130 h1         1 0LI       0.084700
     67 H253       -44.3860     3.1550   -66.9120 h1         1 0LI       0.084700
@<TRIPOS>BOND
     1     1    21 2   
     2     1    22 1   
     3     2    12 1   
     4     2    13 1   
     5     2    15 1   
     6     2    40 1   
     7     3     4 1   
     8     3    24 3   
     9     4     5 ar  
    10     4     8 ar  
    11     5     6 ar  
    12     5    26 1   
    13     6     7 ar  
    14     6    41 1   
    15     7    25 ar  
    16     7    42 1   
    17     8    25 ar  
    18     8    43 1   
    19     9    29 1   
    20     9    30 ar  
    21     9    32 ar  
    22    10    30 ar  
    23    10    31 ar  
    24    10    44 1   
    25    11    31 ar  
    26    11    32 ar  
    27    11    33 1   
    28    12    31 1   
    29    12    45 1   
    30    12    46 1   
    31    13    14 1   
    32    13    47 1   
    33    13    48 1   
    34    14    39 1   
    35    14    49 1   
    36    14    50 1   
    37    15    37 1   
    38    15    51 1   
    39    15    52 1   
    40    16    17 2   
    41    16    21 1   
    42    16    53 1   
    43    17    18 1   
    44    17    54 1   
    45    18    19 2   
    46    18    55 1   
    47    19    20 1   
    48    20    21 1   
    49    20    23 1   
    50    22    23 2   
    51    22    56 1   
    52    23    24 1   
    53    25    27 1   
    54    26    57 1   
    55    26    58 1   
    56    26    59 1   
    57    27    28 2   
    58    27    29 1   
    59    29    60 1   
    60    30    61 1   
    61    32    62 1   
    62    33    34 1   
    63    33    35 1   
    64    33    36 1   
    65    37    39 1   
    66    37    63 1   
    67    37    64 1   
    68    38    39 1   
    69    38    65 1   
    70    38    66 1   
    71    38    67 1   
@<TRIPOS>SUBSTRUCTURE
     1 0LI         1 TEMP              0 ****  ****    0 ROOT
