@<TRIPOS>MOLECULE
DB81
   66    69     1     0     0
SMALL
No Charge or Current Charge


@<TRIPOS>ATOM
      1 C1         -41.9620   -15.1030   -59.7620 c3         1 DB8       0.115985
      2 O1         -38.4130    -7.0020   -57.0460 os         1 DB8      -0.336309
      3 C2         -44.8710   -18.5220   -56.0090 c3         1 DB8       0.170291
      4 N1         -42.5940    -7.0430   -56.4900 n1         1 DB8      -0.363609
      5 Cl1        -38.9450    -5.0590   -59.1710 cl         1 DB8      -0.047309
      6 Cl2        -42.6660    -8.5340   -60.8530 cl         1 DB8      -0.069709
      7 C3         -42.6550    -8.1880   -56.3420 cg         1 DB8       0.245691
      8 C4         -43.2370   -10.1040   -54.9680 ca         1 DB8       0.488491
      9 C5         -40.6780    -6.9830   -59.9160 ca         1 DB8      -0.103209
     10 C6         -39.9730    -8.7120   -57.8640 ca         1 DB8      -0.131009
     11 C7         -43.5340   -13.6590   -55.4080 ca         1 DB8      -0.211309
     12 C8         -42.4050   -12.9940   -57.8760 ca         1 DB8      -0.104609
     13 C9         -44.3050   -17.7920   -54.7690 c3         1 DB8      -0.089109
     14 C10        -43.3310   -16.6600   -55.1230 c3         1 DB8       0.130391
     15 C11        -48.4580   -22.0190   -55.9650 c3         1 DB8       0.086191
     16 C12        -45.8010   -20.4890   -57.0040 c3         1 DB8       0.141391
     17 C13        -46.2720   -20.0430   -54.6760 c3         1 DB8       0.141391
     18 C14        -46.0730   -22.0030   -56.8530 c3         1 DB8       0.106491
     19 C15        -46.5420   -21.5330   -54.3660 c3         1 DB8       0.106491
     20 N2         -43.4610   -11.4050   -54.6970 nb         1 DB8      -0.693409
     21 N3         -41.8030   -10.1860   -58.4310 nh         1 DB8      -0.664009
     22 O2         -42.6130   -15.3550   -58.5190 os         1 DB8      -0.335409
     23 O3         -43.8700   -15.8980   -56.1930 os         1 DB8      -0.331409
     24 C16        -39.3370    -7.4640   -57.9610 ca         1 DB8       0.116691
     25 C17        -39.6910    -6.6090   -59.0070 ca         1 DB8       0.016191
     26 C18        -41.3600    -8.1910   -59.7710 ca         1 DB8       0.007291
     27 C19        -42.7230    -9.6370   -56.1750 ca         1 DB8      -0.219009
     28 C20        -41.0150    -9.0620   -58.7290 ca         1 DB8       0.131291
     29 C21        -42.7780   -14.3200   -57.6150 ca         1 DB8       0.077191
     30 C22        -43.3630   -14.6360   -56.3860 ca         1 DB8       0.106091
     31 C23        -42.3630   -10.5680   -57.1840 ca         1 DB8       0.293691
     32 C24        -43.1990   -12.3160   -55.6680 ca         1 DB8       0.443991
     33 C25        -42.6390   -11.9540   -56.9310 ca         1 DB8      -0.189809
     34 N4         -45.2920   -19.9030   -55.7590 n3         1 DB8      -0.733709
     35 N5         -46.9780   -22.3050   -55.6340 n4         1 DB8      -0.684909
     36 C26        -38.2930    -7.6960   -55.8150 c3         1 DB8       0.114491
     37 H1         -41.8810   -16.0350   -60.3200 h1         1 DB8       0.045391
     38 H2         -42.5320   -14.4050   -60.3750 h1         1 DB8       0.045391
     39 H3         -40.9520   -14.7140   -59.6200 h1         1 DB8       0.045391
     40 H4         -44.0940   -18.5510   -56.7760 h1         1 DB8       0.052391
     41 H5         -45.6950   -17.9420   -56.4250 h1         1 DB8       0.052391
     42 H6         -43.5110    -9.4200   -54.1780 h4         1 DB8       0.038591
     43 H7         -40.9440    -6.3120   -60.7140 ha         1 DB8       0.170691
     44 H8         -39.7360    -9.3870   -57.0560 ha         1 DB8       0.163391
     45 H9         -43.9740   -13.9150   -54.4590 ha         1 DB8       0.159491
     46 H10        -41.9620   -12.7370   -58.8230 ha         1 DB8       0.149191
     47 H11        -43.7880   -18.4910   -54.1100 hc         1 DB8       0.068791
     48 H12        -45.1310   -17.3760   -54.1950 hc         1 DB8       0.068791
     49 H13        -42.3870   -17.0880   -55.4590 h1         1 DB8       0.046091
     50 H14        -43.1210   -16.0640   -54.2350 h1         1 DB8       0.046091
     51 H15        -49.0520   -22.3050   -55.0960 hx         1 DB8       0.105791
     52 H16        -48.5680   -20.9570   -56.1880 hx         1 DB8       0.105791
     53 H17        -48.7240   -22.6310   -56.8280 hx         1 DB8       0.105791
     54 H18        -46.7040   -19.9700   -57.3290 h1         1 DB8       0.076891
     55 H19        -45.0680   -20.3520   -57.8010 h1         1 DB8       0.076891
     56 H20        -45.8910   -19.5840   -53.7650 h1         1 DB8       0.076891
     57 H21        -47.1960   -19.5200   -54.9220 h1         1 DB8       0.076891
     58 H22        -45.1470   -22.5480   -56.6640 hx         1 DB8       0.110691
     59 H23        -46.5370   -22.4400   -57.7390 hx         1 DB8       0.110691
     60 H24        -47.3100   -21.6730   -53.6030 hx         1 DB8       0.110691
     61 H25        -45.6370   -22.0330   -54.0190 hx         1 DB8       0.110691
     62 H26        -41.7620   -10.9140   -59.1320 hn         1 DB8       0.453191
     63 H27        -46.9040   -23.2940   -55.4350 hn         1 DB8       0.444891
     64 H28        -37.6610    -7.1350   -55.1320 h1         1 DB8       0.050091
     65 H29        -39.2570    -7.8230   -55.3270 h1         1 DB8       0.050091
     66 H30        -37.8550    -8.6810   -55.9620 h1         1 DB8       0.050091
@<TRIPOS>BOND
     1     1    22 1   
     2     1    37 1   
     3     1    38 1   
     4     1    39 1   
     5     2    24 1   
     6     2    36 1   
     7     3    13 1   
     8     3    34 1   
     9     3    40 1   
    10     3    41 1   
    11     4     7 3   
    12     5    25 1   
    13     6    26 1   
    14     7    27 1   
    15     8    20 ar  
    16     8    27 ar  
    17     8    42 1   
    18     9    25 ar  
    19     9    26 ar  
    20     9    43 1   
    21    10    24 ar  
    22    10    28 ar  
    23    10    44 1   
    24    11    30 ar  
    25    11    32 ar  
    26    11    45 1   
    27    12    29 ar  
    28    12    33 ar  
    29    12    46 1   
    30    13    14 1   
    31    13    47 1   
    32    13    48 1   
    33    14    23 1   
    34    14    49 1   
    35    14    50 1   
    36    15    35 1   
    37    15    51 1   
    38    15    52 1   
    39    15    53 1   
    40    16    18 1   
    41    16    34 1   
    42    16    54 1   
    43    16    55 1   
    44    17    19 1   
    45    17    34 1   
    46    17    56 1   
    47    17    57 1   
    48    18    35 1   
    49    18    58 1   
    50    18    59 1   
    51    19    35 1   
    52    19    60 1   
    53    19    61 1   
    54    20    32 ar  
    55    21    28 1   
    56    21    31 1   
    57    21    62 1   
    58    22    29 1   
    59    23    30 1   
    60    24    25 ar  
    61    26    28 ar  
    62    27    31 ar  
    63    29    30 ar  
    64    31    33 ar  
    65    32    33 ar  
    66    35    63 1   
    67    36    64 1   
    68    36    65 1   
    69    36    66 1   
@<TRIPOS>SUBSTRUCTURE
     1 DB8         1 TEMP              0 ****  ****    0 ROOT
