@<TRIPOS>MOLECULE
1N11
   59    62     1     0     0
SMALL
No Charge or Current Charge


@<TRIPOS>ATOM
      1 C1         -42.8970   -10.1030   -55.1890 cc         1 1N1       0.396390
      2 C2         -42.1600   -10.0380   -56.3760 cd         1 1N1      -0.295905
      3 C3         -41.5720    -8.9510   -57.1100 c          1 1N1       0.724995
      4 N1         -45.6380   -20.7620   -56.7870 n3         1 1N1      -0.743705
      5 C4         -39.7590    -4.4500   -58.3230 ca         1 1N1      -0.121605
      6 C5         -41.1420    -4.6050   -58.3620 ca         1 1N1      -0.125205
      7 C6         -41.7510    -5.6980   -57.7430 ca         1 1N1      -0.082405
      8 C7         -43.2560    -5.8460   -57.8890 c3         1 1N1      -0.052605
      9 C8         -43.3470   -14.5950   -56.5620 ca         1 1N1       0.703595
     10 C9         -43.7540   -15.8870   -56.2020 ca         1 1N1      -0.450205
     11 C10        -43.7290   -16.8900   -57.1940 ca         1 1N1       0.691995
     12 C11        -42.8930   -15.3500   -58.7040 ca         1 1N1       0.697395
     13 C12        -42.3660   -15.0410   -60.0890 c3         1 1N1      -0.135705
     14 C13        -44.5410   -18.7710   -55.6770 c3         1 1N1       0.201695
     15 C14        -44.2470   -19.2010   -58.0750 c3         1 1N1       0.201695
     16 C15        -46.0040   -22.1160   -56.3590 c3         1 1N1       0.170895
     17 C16        -44.9540   -22.8680   -55.5100 c3         1 1N1       0.128695
     18 N2         -43.4280   -13.5500   -55.6170 nh         1 1N1      -0.834805
     19 C17        -43.0310   -12.2280   -55.7190 cd         1 1N1       0.658895
     20 N3         -43.3430   -11.3020   -54.8420 nc         1 1N1      -0.646105
     21 S1         -42.0800   -11.6300   -57.0420 ss         1 1N1      -0.053805
     22 N4         -41.5420    -7.7660   -56.4730 n          1 1N1      -0.480405
     23 C18        -40.9550    -6.6340   -57.0570 ca         1 1N1       0.057395
     24 C19        -39.5620    -6.4540   -56.9900 ca         1 1N1       0.030595
     25 C20        -38.9720    -5.3670   -57.6330 ca         1 1N1      -0.122605
     26 Cl1        -38.5430    -7.5420   -56.1120 cl         1 1N1      -0.074705
     27 O1         -41.1330    -9.1210   -58.2520 o          1 1N1      -0.585505
     28 N5         -43.2940   -16.6120   -58.4540 nb         1 1N1      -0.765605
     29 N6         -42.9140   -14.3330   -57.8220 nb         1 1N1      -0.714705
     30 N7         -44.1610   -18.2000   -56.9820 nh         1 1N1      -0.768105
     31 C21        -45.7840   -19.6970   -55.7840 c3         1 1N1       0.168395
     32 C22        -44.4370   -20.6640   -57.6150 c3         1 1N1       0.168395
     33 O2         -44.7190   -22.2520   -54.2610 oh         1 1N1      -0.605505
     34 H1         -43.1270    -9.2610   -54.5520 h4         1 1N1       0.041795
     35 H2         -39.2950    -3.6020   -58.8020 ha         1 1N1       0.138295
     36 H3         -41.7450    -3.8720   -58.8780 ha         1 1N1       0.136095
     37 H4         -43.6830    -6.6270   -57.2650 hc         1 1N1       0.046695
     38 H5         -43.7510    -4.9100   -57.6380 hc         1 1N1       0.046695
     39 H6         -43.4870    -6.0930   -58.9220 hc         1 1N1       0.046695
     40 H7         -44.1030   -16.0750   -55.1990 ha         1 1N1       0.153395
     41 H8         -41.3850   -14.5690   -60.0250 hc         1 1N1       0.064595
     42 H9         -42.2670   -15.9430   -60.6940 hc         1 1N1       0.064595
     43 H10        -43.0400   -14.3570   -60.6020 hc         1 1N1       0.064595
     44 H11        -44.7650   -17.9980   -54.9490 h1         1 1N1       0.051595
     45 H12        -43.6830   -19.3230   -55.2920 h1         1 1N1       0.051595
     46 H13        -43.3400   -19.1600   -58.6790 h1         1 1N1       0.051595
     47 H14        -45.0750   -18.9080   -58.7230 h1         1 1N1       0.051595
     48 H15        -46.1830   -22.6970   -57.2650 h1         1 1N1       0.048095
     49 H16        -46.9660   -22.1020   -55.8470 h1         1 1N1       0.048095
     50 H17        -44.0180   -22.9970   -56.0530 h1         1 1N1       0.029595
     51 H18        -45.3190   -23.8750   -55.3110 h1         1 1N1       0.029595
     52 H19        -43.8460   -13.8540   -54.7490 hn         1 1N1       0.458095
     53 H20        -41.8930    -7.6780   -55.5310 hn         1 1N1       0.319395
     54 H21        -37.9030    -5.2260   -57.5870 ha         1 1N1       0.150095
     55 H22        -46.0480   -20.0900   -54.8020 h1         1 1N1       0.040695
     56 H23        -46.6350   -19.1050   -56.1140 h1         1 1N1       0.040695
     57 H24        -44.5210   -21.3260   -58.4770 h1         1 1N1       0.040695
     58 H25        -43.5670   -20.9780   -57.0350 h1         1 1N1       0.040695
     59 H26        -44.3090   -21.3980   -54.4190 ho         1 1N1       0.402595
@<TRIPOS>BOND
     1     1     2 2   
     2     1    20 1   
     3     1    34 1   
     4     2     3 1   
     5     2    21 1   
     6     3    22 1   
     7     3    27 2   
     8     4    16 1   
     9     4    31 1   
    10     4    32 1   
    11     5     6 ar  
    12     5    25 ar  
    13     5    35 1   
    14     6     7 ar  
    15     6    36 1   
    16     7     8 1   
    17     7    23 ar  
    18     8    37 1   
    19     8    38 1   
    20     8    39 1   
    21     9    10 ar  
    22     9    18 1   
    23     9    29 ar  
    24    10    11 ar  
    25    10    40 1   
    26    11    28 ar  
    27    11    30 1   
    28    12    13 1   
    29    12    28 ar  
    30    12    29 ar  
    31    13    41 1   
    32    13    42 1   
    33    13    43 1   
    34    14    30 1   
    35    14    31 1   
    36    14    44 1   
    37    14    45 1   
    38    15    30 1   
    39    15    32 1   
    40    15    46 1   
    41    15    47 1   
    42    16    17 1   
    43    16    48 1   
    44    16    49 1   
    45    17    33 1   
    46    17    50 1   
    47    17    51 1   
    48    18    19 1   
    49    18    52 1   
    50    19    20 2   
    51    19    21 1   
    52    22    23 1   
    53    22    53 1   
    54    23    24 ar  
    55    24    25 ar  
    56    24    26 1   
    57    25    54 1   
    58    31    55 1   
    59    31    56 1   
    60    32    57 1   
    61    32    58 1   
    62    33    59 1   
@<TRIPOS>SUBSTRUCTURE
     1 1N1         1 TEMP              0 ****  ****    0 ROOT
