@<TRIPOS>MOLECULE
NIL1
   61    65     1     0     0
SMALL
No Charge or Current Charge


@<TRIPOS>ATOM
      1 O1         -43.2510    -4.3330   -59.2460 o          1 NIL      -0.581780
      2 C1         -42.0920    -3.9250   -59.1620 c          1 NIL       0.691098
      3 N1         -41.7060    -2.7080   -59.6060 n          1 NIL      -0.471702
      4 C2         -42.5450    -1.6650   -60.0440 ca         1 NIL       0.105398
      5 C3         -42.0220    -0.7490   -60.9600 ca         1 NIL      -0.175902
      6 C4         -42.7930     0.3340   -61.4060 ca         1 NIL       0.064098
      7 N2         -42.2590     1.2690   -62.3220 na         1 NIL      -0.149002
      8 C5         -40.9460     1.6240   -62.5170 cc         1 NIL      -0.249502
      9 C6         -40.9190     2.5930   -63.5110 cd         1 NIL       0.317998
     10 C7         -39.7450     3.3200   -64.1180 c3         1 NIL      -0.117602
     11 N3         -42.1440     2.8530   -63.9280 nd         1 NIL      -0.655002
     12 C8         -42.9220     2.0600   -63.2330 cc         1 NIL       0.415898
     13 C9         -44.1050     0.4820   -60.9350 ca         1 NIL      -0.146002
     14 C10        -43.8550    -1.4850   -59.5670 ca         1 NIL      -0.166302
     15 C11        -44.6500    -0.4330   -60.0280 ca         1 NIL      -0.108602
     16 C12        -46.0890    -0.2930   -59.5310 c3         1 NIL       0.686098
     17 F1         -46.1620    -0.5350   -58.2200 f          1 NIL      -0.234102
     18 F2         -46.5870     0.9230   -59.7560 f          1 NIL      -0.234102
     19 F3         -46.8540    -1.1800   -60.1670 f          1 NIL      -0.234102
     20 C13        -41.0430    -4.8020   -58.5140 ca         1 NIL      -0.146202
     21 C14        -39.6880    -4.4410   -58.4390 ca         1 NIL      -0.108902
     22 C15        -38.7630    -5.2680   -57.8050 ca         1 NIL      -0.133502
     23 C16        -39.1700    -6.4720   -57.2280 ca         1 NIL      -0.025002
     24 C17        -38.1590    -7.3430   -56.5050 c3         1 NIL      -0.060302
     25 C18        -40.5140    -6.8550   -57.3170 ca         1 NIL       0.143398
     26 C19        -41.4360    -6.0210   -57.9450 ca         1 NIL      -0.095802
     27 N4         -40.9650    -8.0670   -56.7830 nh         1 NIL      -0.745502
     28 C20        -41.2920    -9.2150   -57.5020 ca         1 NIL       0.887698
     29 N5         -41.0310    -9.2550   -58.8330 nb         1 NIL      -0.732202
     30 C21        -41.3820   -10.3830   -59.4920 ca         1 NIL       0.460698
     31 C22        -41.9800   -11.4600   -58.8460 ca         1 NIL      -0.406802
     32 C23        -42.2000   -11.3510   -57.4650 cp         1 NIL       0.536298
     33 N6         -41.8560   -10.2170   -56.7920 nb         1 NIL      -0.745702
     34 C24        -42.7920   -12.4540   -56.6450 cp         1 NIL      -0.274402
     35 C25        -43.0690   -13.7180   -57.1940 ca         1 NIL      -0.069202
     36 C26        -43.5740   -14.7440   -56.3990 ca         1 NIL      -0.250702
     37 C27        -43.8000   -14.4840   -55.0510 ca         1 NIL       0.405398
     38 N7         -43.5650   -13.2750   -54.4850 nb         1 NIL      -0.666102
     39 C28        -43.0750   -12.2910   -55.2770 ca         1 NIL       0.431398
     40 H1         -40.7130    -2.5230   -59.6540 hn         1 NIL       0.325598
     41 H2         -41.0210    -0.8920   -61.3380 ha         1 NIL       0.187198
     42 H3         -40.1580     1.1670   -61.9450 h4         1 NIL       0.181298
     43 H4         -39.8370     4.3990   -64.0060 hc         1 NIL       0.049498
     44 H5         -38.8000     3.0280   -63.6620 hc         1 NIL       0.049498
     45 H6         -39.6620     3.1190   -65.1860 hc         1 NIL       0.049498
     46 H7         -43.9940     2.0090   -63.3250 h5         1 NIL       0.074898
     47 H8         -44.7130     1.3040   -61.2790 ha         1 NIL       0.161298
     48 H9         -44.2730    -2.1620   -58.8370 ha         1 NIL       0.150998
     49 H10        -39.3300    -3.5100   -58.8480 ha         1 NIL       0.135598
     50 H11        -37.7270    -4.9630   -57.7570 ha         1 NIL       0.142598
     51 H12        -38.5040    -7.5620   -55.4960 hc         1 NIL       0.055898
     52 H13        -38.0150    -8.2840   -57.0370 hc         1 NIL       0.055898
     53 H14        -37.1990    -6.8440   -56.4230 hc         1 NIL       0.055898
     54 H15        -42.4690    -6.3380   -57.9880 ha         1 NIL       0.161898
     55 H16        -41.1550    -8.0820   -55.7910 hn         1 NIL       0.460598
     56 H17        -41.1930   -10.4010   -60.5560 h4         1 NIL       0.029998
     57 H18        -42.2550   -12.3310   -59.4140 ha         1 NIL       0.159598
     58 H19        -42.8800   -13.9380   -58.2300 ha         1 NIL       0.144198
     59 H20        -43.7730   -15.7200   -56.8170 ha         1 NIL       0.147198
     60 H21        -44.1720   -15.2610   -54.3990 h4         1 NIL       0.025598
     61 H22        -42.8960   -11.3520   -54.7710 h4         1 NIL       0.033798
@<TRIPOS>BOND
     1     1     2 2   
     2     2     3 1   
     3     2    20 1   
     4     3     4 1   
     5     3    40 1   
     6     4     5 ar  
     7     4    14 ar  
     8     5     6 ar  
     9     5    41 1   
    10     6     7 1   
    11     6    13 ar  
    12     7     8 1   
    13     7    12 1   
    14     8     9 2   
    15     8    42 1   
    16     9    10 1   
    17     9    11 1   
    18    10    43 1   
    19    10    44 1   
    20    10    45 1   
    21    11    12 2   
    22    12    46 1   
    23    13    15 ar  
    24    13    47 1   
    25    14    15 ar  
    26    14    48 1   
    27    15    16 1   
    28    16    17 1   
    29    16    18 1   
    30    16    19 1   
    31    20    21 ar  
    32    20    26 ar  
    33    21    22 ar  
    34    21    49 1   
    35    22    23 ar  
    36    22    50 1   
    37    23    24 1   
    38    23    25 ar  
    39    24    51 1   
    40    24    52 1   
    41    24    53 1   
    42    25    26 ar  
    43    25    27 1   
    44    26    54 1   
    45    27    28 1   
    46    27    55 1   
    47    28    29 ar  
    48    28    33 ar  
    49    29    30 ar  
    50    30    31 ar  
    51    30    56 1   
    52    31    32 ar  
    53    31    57 1   
    54    32    33 ar  
    55    32    34 1   
    56    34    35 ar  
    57    34    39 ar  
    58    35    36 ar  
    59    35    58 1   
    60    36    37 ar  
    61    36    59 1   
    62    37    38 ar  
    63    37    60 1   
    64    38    39 ar  
    65    39    61 1   
@<TRIPOS>SUBSTRUCTURE
     1 NIL         1 TEMP              0 ****  ****    0 ROOT
