@<TRIPOS>MOLECULE
cAbl-ponatinib.mae_ligand
67   71    1
SMALL
USER_CHARGES


@<TRIPOS>ATOM
      1 N1        -43.6063  -11.9134  -54.1305 N.2       1 0LI        -0.5273 
      2 N3        -44.5901    2.3942  -62.1179 N.4       1 0LI        -0.4393 
      3 C4        -41.4814   -8.2820  -56.5831 C.1       1 0LI        -0.1627 
      4 C5        -40.9318   -7.0271  -57.0748 C.ar      1 0LI         0.0922 
      5 C6        -39.5898   -6.6563  -56.8875 C.ar      1 0LI        -0.0275 
      6 C7        -39.1395   -5.4396  -57.4064 C.ar      1 0LI        -0.1326 
      7 C8        -40.0147   -4.5780  -58.0636 C.ar      1 0LI        -0.0881 
      8 C10       -41.8002   -6.1602  -57.7309 C.ar      1 0LI        -0.0741 
      9 C13       -42.8092   -1.6495  -59.4771 C.ar      1 0LI         0.0927 
     10 C15       -42.9401    0.4989  -60.5650 C.ar      1 0LI        -0.1039 
     11 C17       -44.9246   -0.4273  -59.5242 C.ar      1 0LI        -0.0702 
     12 C20       -45.0836    1.8185  -60.7741 C.3       1 0LI         0.0826 
     13 C21       -44.8091    1.4018  -63.2802 C.3       1 0LI         0.0644 
     14 C22       -44.2009    2.0040  -64.5599 C.3       1 0LI         0.0438 
     15 C24       -45.2235    3.7629  -62.4409 C.3       1 0LI         0.0644 
     16 C81       -43.8748  -13.7918  -55.7799 C.ar      1 0LI        -0.1257 
     17 C82       -43.6381  -14.1195  -57.1155 C.ar      1 0LI        -0.1913 
     18 C83       -43.0238  -13.1851  -57.9472 C.ar      1 0LI         0.0256 
     19 N81       -42.6233  -11.9520  -57.5603 N.2       1 0LI        -0.4535 
     20 N82       -42.8796  -11.6649  -56.2733 N.pl3     1 0LI         0.4719 
     21 C84       -43.4927  -12.5141  -55.3351 C.ar      1 0LI         0.2626 
     22 C1        -43.1276  -10.7071  -54.3272 C.ar      1 0LI         0.0686 
     23 C2        -42.6206  -10.4901  -55.6039 C.ar      1 0LI        -0.1164 
     24 C3        -41.9949   -9.3018  -56.1550 C.1       1 0LI        -0.0774 
     25 C9        -41.3662   -4.9184  -58.2126 C.ar      1 0LI        -0.1858 
     26 C11       -38.6135   -7.5288  -56.1140 C.3       1 0LI        -0.1338 
     27 C12       -42.3765   -3.9893  -58.8382 C.2       1 0LI         0.5605 
     28 O1        -43.5155   -4.3945  -59.0491 O.2       1 0LI        -0.4842 
     29 N2        -41.9885   -2.7259  -59.0990 N.am      1 0LI        -0.4262 
     30 C14       -42.2077   -0.6172  -60.1827 C.ar      1 0LI        -0.0896 
     31 C16       -44.3062    0.5982  -60.2705 C.ar      1 0LI        -0.1183 
     32 C18       -44.1618   -1.5342  -59.1278 C.ar      1 0LI        -0.0727 
     33 C19       -46.3957   -0.3506  -59.1011 C.3       1 0LI         0.4631 
     34 F1        -47.1769   -0.5223  -60.1658 F         1 0LI        -0.1701 
     35 F2        -46.7145   -1.2813  -58.2025 F         1 0LI        -0.1701 
     36 F3        -46.6592    0.8351  -58.5535 F         1 0LI        -0.1701 
     37 C23       -44.6021    4.2859  -63.7521 C.3       1 0LI         0.0438 
     38 C25       -44.2153    3.8533  -66.0917 C.3       1 0LI         0.0459 
     39 N4        -44.7643    3.3245  -64.8501 N.3       1 0LI        -0.6957 
     40 HN3       -43.5945    2.5394  -62.0326 H         1 0LI         0.3095 
     41 H7        -38.1076   -5.1465  -57.2873 H         1 0LI         0.1465 
     42 H8        -39.6250   -3.6408  -58.4326 H         1 0LI         0.1380 
     43 H10       -42.8358   -6.4520  -57.8472 H         1 0LI         0.1439 
     44 H15       -42.4327    1.2780  -61.1134 H         1 0LI         0.1449 
     45 H201      -46.1452    1.6275  -60.9314 H         1 0LI         0.1283 
     46 H202      -44.9734    2.6384  -60.0682 H         1 0LI         0.1283 
     47 H211      -45.8809    1.2199  -63.3723 H         1 0LI         0.1295 
     48 H212      -44.3190    0.4677  -63.0116 H         1 0LI         0.1295 
     49 H221      -44.3960    1.3298  -65.3954 H         1 0LI         0.1034 
     50 H222      -43.1158    2.0666  -64.4608 H         1 0LI         0.1034 
     51 H241      -45.0143    4.4282  -61.6024 H         1 0LI         0.1295 
     52 H242      -46.3026    3.6201  -62.5213 H         1 0LI         0.1295 
     53 H81       -44.3401  -14.4999  -55.1116 H         1 0LI         0.1721 
     54 H82       -43.9187  -15.0893  -57.5003 H         1 0LI         0.1605 
     55 H83       -42.8115  -13.4118  -58.9738 H         1 0LI         0.1822 
     56 H1        -43.1306   -9.9780  -53.5348 H         1 0LI         0.1688 
     57 H111      -37.7424   -6.9610  -55.7934 H         1 0LI         0.0822 
     58 H112      -39.0768   -7.9285  -55.2144 H         1 0LI         0.0822 
     59 H113      -38.2821   -8.3652  -56.7275 H         1 0LI         0.0822 
     60 HN2       -41.0027   -2.5201  -59.0275 H         1 0LI         0.3230 
     61 H14       -41.1675   -0.6873  -60.4392 H         1 0LI         0.1691 
     62 H18       -44.6243   -2.3026  -58.5299 H         1 0LI         0.1767 
     63 H231      -43.5443    4.5070  -63.5989 H         1 0LI         0.1034 
     64 H232      -45.0811    5.2283  -64.0183 H         1 0LI         0.1034 
     65 H251      -44.6991    4.7943  -66.3554 H         1 0LI         0.0847 
     66 H252      -43.1418    4.0298  -66.0132 H         1 0LI         0.0847 
     67 H253      -44.3860    3.1546  -66.9122 H         1 0LI         0.0847 
@<TRIPOS>BOND
     1    1   21 ar   
     2    1   22 ar   
     3    2   12 1    
     4    2   13 1    
     5    2   15 1    
     6    2   40 1    
     7    3    4 1    
     8    3   24 3    
     9    4    5 ar   
    10    4    8 ar   
    11    5    6 ar   
    12    5   26 1    
    13    6    7 ar   
    14    6   41 1    
    15    7   25 ar   
    16    7   42 1    
    17    8   25 ar   
    18    8   43 1    
    19    9   29 1    
    20    9   30 ar   
    21    9   32 ar   
    22   10   30 ar   
    23   10   31 ar   
    24   10   44 1    
    25   11   31 ar   
    26   11   32 ar   
    27   11   33 1    
    28   12   31 1    
    29   12   45 1    
    30   12   46 1    
    31   13   14 1    
    32   13   47 1    
    33   13   48 1    
    34   14   39 1    
    35   14   49 1    
    36   14   50 1    
    37   15   37 1    
    38   15   51 1    
    39   15   52 1    
    40   16   17 ar   
    41   16   21 ar   
    42   16   53 1    
    43   17   18 ar   
    44   17   54 1    
    45   18   19 ar   
    46   18   55 1    
    47   19   20 ar   
    48   20   21 ar   
    49   20   23 ar   
    50   22   23 ar   
    51   22   56 1    
    52   23   24 1    
    53   25   27 1    
    54   26   57 1    
    55   26   58 1    
    56   26   59 1    
    57   27   28 2    
    58   27   29 am   BACKBONE|DICT|INTERRES
    59   29   60 1    
    60   30   61 1    
    61   32   62 1    
    62   33   34 1    
    63   33   35 1    
    64   33   36 1    
    65   37   39 1    
    66   37   63 1    
    67   37   64 1    
    68   38   39 1    
    69   38   65 1    
    70   38   66 1    
    71   38   67 1    
@<TRIPOS>SUBSTRUCTURE
     1 0LI         1 GROUP             0 A     ****    0 ROOT    
