@<TRIPOS>MOLECULE
STI1
   69    73     1     0     0
SMALL
No Charge or Current Charge


@<TRIPOS>ATOM
      1 C1         -43.5330   -14.5550   -57.1460 ca         1 STI      -0.250968
      2 C2         -42.9250   -13.5060   -57.8320 ca         1 STI      -0.057399
      3 C3         -42.4830   -12.3600   -57.1470 cp         1 STI      -0.275699
      4 C4         -42.7180   -12.3320   -55.7620 ca         1 STI       0.417501
      5 N1         -43.3210   -13.3350   -55.0760 nb         1 STI      -0.663299
      6 C5         -43.7080   -14.4320   -55.7710 ca         1 STI       0.405401
      7 C6         -41.7980   -11.2350   -57.8610 cp         1 STI       0.536101
      8 C7         -41.3620   -11.3340   -59.1900 ca         1 STI      -0.406599
      9 C8         -40.7340   -10.2240   -59.7490 ca         1 STI       0.461701
     10 N2         -40.5280    -9.0830   -59.0520 nb         1 STI      -0.732299
     11 C9         -40.9860    -9.0580   -57.7750 ca         1 STI       0.891801
     12 N3         -41.6050   -10.0870   -57.1490 nb         1 STI      -0.755199
     13 N4         -40.8540    -7.8820   -57.0350 nh         1 STI      -0.760399
     14 C10        -40.2820    -6.6770   -57.4610 ca         1 STI       0.180101
     15 C11        -38.9030    -6.4380   -57.3470 ca         1 STI      -0.071999
     16 C12        -38.3830    -5.2220   -57.7950 ca         1 STI      -0.103799
     17 C13        -39.2240    -4.2440   -58.3210 ca         1 STI      -0.150099
     18 C14        -40.6030    -4.4560   -58.4040 ca         1 STI       0.060501
     19 C15        -41.1220    -5.6920   -57.9850 ca         1 STI      -0.198699
     20 N5         -41.3740    -3.3770   -58.8820 n          1 STI      -0.460999
     21 C16        -42.7200    -3.2300   -58.9210 c          1 STI       0.675701
     22 C17        -43.2350    -1.8560   -59.3030 ca         1 STI      -0.127599
     23 C18        -44.5600    -1.5090   -58.9970 ca         1 STI      -0.088999
     24 C19        -45.0810    -0.2770   -59.3790 ca         1 STI      -0.124699
     25 C20        -44.2830     0.6370   -60.0680 ca         1 STI      -0.097899
     26 C21        -42.9460     0.3230   -60.3340 ca         1 STI      -0.124699
     27 C22        -42.4300    -0.9180   -59.9690 ca         1 STI      -0.088999
     28 C23        -44.8950     1.9660   -60.5160 c3         1 STI       0.224801
     29 N6         -44.4690     2.3930   -61.8550 n3         1 STI      -0.757099
     30 C24        -44.9190     1.4630   -62.9010 c3         1 STI       0.152101
     31 C25        -44.3290     1.8450   -64.2710 c3         1 STI       0.106201
     32 N7         -44.7060     3.3010   -64.6120 n4         1 STI      -0.683799
     33 C26        -44.0520     3.7310   -65.9390 c3         1 STI       0.083401
     34 C27        -44.3490     4.2780   -63.4710 c3         1 STI       0.106201
     35 C28        -44.9350     3.7560   -62.1400 c3         1 STI       0.152101
     36 O1         -43.5250    -4.1200   -58.6450 o          1 STI      -0.580199
     37 C29        -37.9620    -7.4750   -56.7520 c3         1 STI      -0.051599
     38 H1         -43.8570   -15.4420   -57.6680 ha         1 STI       0.147801
     39 H2         -42.8060   -13.6060   -58.8980 ha         1 STI       0.150201
     40 H3         -42.4160   -11.4880   -55.1600 h4         1 STI       0.027101
     41 H4         -44.1520   -15.2370   -55.2070 h4         1 STI       0.027201
     42 H5         -41.4930   -12.2230   -59.7820 ha         1 STI       0.162101
     43 H6         -40.3920   -10.2340   -60.7730 h4         1 STI       0.031001
     44 H7         -41.1760    -7.9190   -56.0790 hn         1 STI       0.461401
     45 H8         -37.3220    -5.0260   -57.7290 ha         1 STI       0.142601
     46 H9         -38.7900    -3.3070   -58.6420 ha         1 STI       0.173501
     47 H10        -42.1730    -5.9190   -58.0490 ha         1 STI       0.132401
     48 H11        -40.8260    -2.5790   -59.1720 hn         1 STI       0.318101
     49 H12        -45.2050    -2.1940   -58.4660 ha         1 STI       0.158101
     50 H13        -46.1100    -0.0430   -59.1480 ha         1 STI       0.141001
     51 H14        -42.3120     1.0280   -60.8550 ha         1 STI       0.141001
     52 H15        -41.4030    -1.1380   -60.2250 ha         1 STI       0.158101
     53 H16        -44.5990     2.7210   -59.7870 h1         1 STI       0.058801
     54 H17        -45.9850     1.9080   -60.4800 h1         1 STI       0.058801
     55 H18        -46.0100     1.4370   -62.9480 h1         1 STI       0.077201
     56 H19        -44.6000     0.4460   -62.6680 h1         1 STI       0.077201
     57 H20        -44.7220     1.2190   -65.0710 hx         1 STI       0.110701
     58 H21        -43.2390     1.7730   -64.2730 hx         1 STI       0.110701
     59 H22        -45.7120     3.3400   -64.7380 hn         1 STI       0.446401
     60 H23        -44.4080     4.7370   -66.1630 hx         1 STI       0.106001
     61 H24        -42.9690     3.7020   -65.8100 hx         1 STI       0.106001
     62 H25        -44.3860     3.0240   -66.7000 hx         1 STI       0.106001
     63 H26        -44.7630     5.2500   -63.7440 hx         1 STI       0.110701
     64 H27        -43.2600     4.3500   -63.4300 hx         1 STI       0.110701
     65 H28        -44.6330     4.4290   -61.3360 h1         1 STI       0.077201
     66 H29        -46.0260     3.7860   -62.1720 h1         1 STI       0.077201
     67 H30        -37.0680    -7.0080   -56.3440 hc         1 STI       0.051401
     68 H31        -38.4410    -8.0130   -55.9360 hc         1 STI       0.051401
     69 H32        -37.6650    -8.1990   -57.5110 hc         1 STI       0.051401
@<TRIPOS>BOND
     1     1     2 ar  
     2     1     6 ar  
     3     1    38 1   
     4     2     3 ar  
     5     2    39 1   
     6     3     4 ar  
     7     3     7 1   
     8     4     5 ar  
     9     4    40 1   
    10     5     6 ar  
    11     6    41 1   
    12     7     8 ar  
    13     7    12 ar  
    14     8     9 ar  
    15     8    42 1   
    16     9    10 ar  
    17     9    43 1   
    18    10    11 ar  
    19    11    12 ar  
    20    11    13 1   
    21    13    14 1   
    22    13    44 1   
    23    14    15 ar  
    24    14    19 ar  
    25    15    16 ar  
    26    15    37 1   
    27    16    17 ar  
    28    16    45 1   
    29    17    18 ar  
    30    17    46 1   
    31    18    19 ar  
    32    18    20 1   
    33    19    47 1   
    34    20    21 1   
    35    20    48 1   
    36    21    22 1   
    37    21    36 2   
    38    22    23 ar  
    39    22    27 ar  
    40    23    24 ar  
    41    23    49 1   
    42    24    25 ar  
    43    24    50 1   
    44    25    26 ar  
    45    25    28 1   
    46    26    27 ar  
    47    26    51 1   
    48    27    52 1   
    49    28    29 1   
    50    28    53 1   
    51    28    54 1   
    52    29    30 1   
    53    29    35 1   
    54    30    31 1   
    55    30    55 1   
    56    30    56 1   
    57    31    32 1   
    58    31    57 1   
    59    31    58 1   
    60    32    33 1   
    61    32    34 1   
    62    32    59 1   
    63    33    60 1   
    64    33    61 1   
    65    33    62 1   
    66    34    35 1   
    67    34    63 1   
    68    34    64 1   
    69    35    65 1   
    70    35    66 1   
    71    37    67 1   
    72    37    68 1   
    73    37    69 1   
@<TRIPOS>SUBSTRUCTURE
     1 STI         1 TEMP              0 ****  ****    0 ROOT
