@<TRIPOS>MOLECULE
cAbl-gefitinib-noxwat.mae_ligand
55   58    1
SMALL
USER_CHARGES


@<TRIPOS>ATOM
      1 CAO       -44.0092  -15.3091  -63.7847 C.3       1 IRE         0.0787 
      2 CAL       -45.0343  -15.2813  -64.9390 C.3       1 IRE         0.1315 
      3 OAU       -45.3019  -13.9435  -65.3425 O.3       1 IRE        -0.4483 
      4 CAM       -45.7524  -13.1164  -64.2766 C.3       1 IRE         0.1315 
      5 CAP       -44.7696  -13.1272  -63.0862 C.3       1 IRE         0.0787 
      6 NBE       -44.4678  -14.4956  -62.6486 N.3       1 IRE        -0.6966 
      7 CAN       -43.5165  -14.4483  -61.5314 C.3       1 IRE         0.1052 
      8 CAJ       -43.0633  -15.8375  -61.0372 C.3       1 IRE        -0.1794 
      9 CAK       -42.3219  -15.8011  -59.6954 C.3       1 IRE         0.1957 
     10 OAV       -43.2663  -15.6455  -58.6423 O.3       1 IRE        -0.3612 
     11 CBA       -43.0624  -14.6899  -57.6703 C.ar      1 IRE         0.1561 
     12 CAZ       -43.3892  -15.0402  -56.3567 C.ar      1 IRE         0.1894 
     13 CAH       -43.3302  -14.0749  -55.3418 C.ar      1 IRE        -0.2462 
     14 OAT       -43.7784  -16.3514  -56.1493 O.3       1 IRE        -0.3540 
     15 CAA       -43.9983  -16.8204  -54.8266 C.3       1 IRE         0.1334 
     16 CAI       -42.6308  -13.3940  -57.9743 C.ar      1 IRE        -0.2304 
     17 C5        -42.5747  -12.3979  -56.9625 C.ar      1 IRE        -0.0193 
     18 C4        -42.9681  -12.7424  -55.6338 C.ar      1 IRE         0.3838 
     19 N3        -43.0202  -11.8176  -54.6349 N.ar      1 IRE        -0.6703 
     20 C2        -42.6722  -10.5523  -54.9642 C.ar      1 IRE         0.4457 
     21 N1        -42.2186  -10.1258  -56.1609 N.ar      1 IRE        -0.7393 
     22 C6        -42.1655  -11.0441  -57.1578 C.ar      1 IRE         0.5200 
     23 NAS       -41.7154  -10.6124  -58.4191 N.pl3     1 IRE        -0.6161 
     24 CAY       -41.1921   -9.3810  -58.8445 C.ar      1 IRE         0.2089 
     25 CAG       -40.4023   -8.5705  -58.0172 C.ar      1 IRE        -0.1265 
     26 CAX       -39.8981   -7.3576  -58.4876 C.ar      1 IRE         0.0594 
     27 CL        -38.9116   -6.3861  -57.4579 Cl        1 IRE        -0.1281 
     28 CAW       -40.1836   -6.9431  -59.7892 C.ar      1 IRE         0.1613 
     29 FAB       -39.7101   -5.7632  -60.2515 F         1 IRE        -0.1675 
     30 CAD       -40.9500   -7.7563  -60.6243 C.ar      1 IRE        -0.1329 
     31 CAE       -41.4446   -8.9728  -60.1568 C.ar      1 IRE        -0.1435 
     32 HAO1      -43.0375  -14.9615  -64.1400 H         1 IRE         0.0711 
     33 HAO2      -43.8798  -16.3465  -63.4765 H         1 IRE         0.0711 
     34 HAL1      -45.9584  -15.7881  -64.6557 H         1 IRE         0.0541 
     35 HAL2      -44.6417  -15.8302  -65.7950 H         1 IRE         0.0541 
     36 HAM1      -46.7509  -13.4221  -63.9638 H         1 IRE         0.0541 
     37 HAM2      -45.8456  -12.0991  -64.6546 H         1 IRE         0.0541 
     38 HAP1      -45.1993  -12.5583  -62.2602 H         1 IRE         0.0711 
     39 HAP2      -43.8539  -12.6075  -63.3745 H         1 IRE         0.0711 
     40 HAN1      -43.9985  -13.9204  -60.7068 H         1 IRE         0.0601 
     41 HAN2      -42.6368  -13.8620  -61.8038 H         1 IRE         0.0601 
     42 HAJ1      -42.3957  -16.2820  -61.7765 H         1 IRE         0.0914 
     43 HAJ2      -43.9200  -16.5084  -60.9515 H         1 IRE         0.0914 
     44 HAK1      -41.5079  -15.0741  -59.7025 H         1 IRE         0.0324 
     45 HAK2      -41.8611  -16.7758  -59.5433 H         1 IRE         0.0324 
     46 HAH       -43.5887  -14.3177  -54.3224 H         1 IRE         0.1632 
     47 HAA1      -44.2500  -17.8803  -54.8555 H         1 IRE         0.0458 
     48 HAA2      -43.1026  -16.7093  -54.2179 H         1 IRE         0.0458 
     49 HAA3      -44.8258  -16.3026  -54.3480 H         1 IRE         0.0458 
     50 HAI       -42.3856  -13.1275  -58.9910 H         1 IRE         0.1459 
     51 H2        -42.7354   -9.8087  -54.1865 H         1 IRE         0.1923 
     52 HNAS      -41.9514  -11.2461  -59.1671 H         1 IRE         0.3146 
     53 HAG       -40.1607   -8.8796  -57.0107 H         1 IRE         0.1672 
     54 HAD       -41.1632   -7.4485  -61.6365 H         1 IRE         0.1529 
     55 HAE       -42.0384   -9.5892  -60.8166 H         1 IRE         0.1385 
@<TRIPOS>BOND
     1    1    2 1    
     2    1    6 1    
     3    1   32 1    
     4    1   33 1    
     5    2    3 1    
     6    2   34 1    
     7    2   35 1    
     8    3    4 1    
     9    4    5 1    
    10    4   36 1    
    11    4   37 1    
    12    5    6 1    
    13    5   38 1    
    14    5   39 1    
    15    6    7 1    
    16    7    8 1    
    17    7   40 1    
    18    7   41 1    
    19    8    9 1    
    20    8   42 1    
    21    8   43 1    
    22    9   10 1    
    23    9   44 1    
    24    9   45 1    
    25   10   11 1    
    26   11   12 ar   
    27   11   16 ar   
    28   12   13 ar   
    29   12   14 1    
    30   13   18 ar   
    31   13   46 1    
    32   14   15 1    
    33   15   47 1    
    34   15   48 1    
    35   15   49 1    
    36   16   17 ar   
    37   16   50 1    
    38   17   18 ar   
    39   17   22 ar   
    40   18   19 ar   
    41   19   20 ar   
    42   20   21 ar   
    43   20   51 1    
    44   21   22 ar   
    45   22   23 1    
    46   23   24 1    
    47   23   52 1    
    48   24   25 ar   
    49   24   31 ar   
    50   25   26 ar   
    51   25   53 1    
    52   26   27 1    
    53   26   28 ar   
    54   28   29 1    
    55   28   30 ar   
    56   30   31 ar   
    57   30   54 1    
    58   31   55 1    
@<TRIPOS>SUBSTRUCTURE
     1 IRE         1 GROUP             0 A     ****    0 ROOT    
