@<TRIPOS>MOLECULE
AXI1
   46    49     1     0     0
SMALL
No Charge or Current Charge


@<TRIPOS>ATOM
      1 O1         -38.4320    -6.3750   -53.7890 o          1 AXI      -0.581095
      2 C1         -38.1660    -7.5200   -54.1490 c          1 AXI       0.668091
      3 N1         -36.9490    -7.8950   -54.5690 n          1 AXI      -0.573909
      4 C2         -35.8010    -7.0020   -54.6730 c3         1 AXI       0.084291
      5 C3         -39.2370    -8.5850   -54.1690 ca         1 AXI      -0.119109
      6 C4         -39.4170    -9.3430   -55.3370 ca         1 AXI      -0.107909
      7 C5         -40.4480   -10.2750   -55.4360 ca         1 AXI      -0.135209
      8 C6         -41.3110   -10.4750   -54.3640 ca         1 AXI      -0.105609
      9 C7         -40.0970    -8.8140   -53.0700 ca         1 AXI       0.019391
     10 C8         -41.1310    -9.7520   -53.1880 ca         1 AXI      -0.136009
     11 S1         -39.9160    -7.9340   -51.5240 ss         1 AXI      -0.090509
     12 C9         -40.2380    -9.1600   -50.2900 ca         1 AXI      -0.021609
     13 C10        -39.6680   -10.4300   -50.3970 ca         1 AXI      -0.120809
     14 C11        -39.9160   -11.4190   -49.4490 ca         1 AXI      -0.073509
     15 C12        -41.0580    -8.8180   -49.2160 ca         1 AXI      -0.092709
     16 C13        -41.3160    -9.8200   -48.2770 ca         1 AXI       0.060291
     17 N2         -42.0920    -9.8330   -47.1450 na         1 AXI      -0.385309
     18 N3         -42.0500   -11.0230   -46.5350 nc         1 AXI      -0.398709
     19 C14        -41.2870   -11.8320   -47.2250 cd         1 AXI       0.378691
     20 C15        -40.7640   -11.1260   -48.3670 ca         1 AXI      -0.181309
     21 C16        -41.1010   -13.2090   -46.7980 cf         1 AXI      -0.174309
     22 C17        -40.4910   -14.2210   -47.4470 ce         1 AXI      -0.200909
     23 C18        -40.3620   -15.6120   -46.9620 ca         1 AXI       0.449191
     24 N4         -40.8020   -15.9170   -45.7090 nb         1 AXI      -0.658209
     25 C19        -40.7320   -17.2070   -45.2940 ca         1 AXI       0.398791
     26 C20        -40.2340   -18.2340   -46.0950 ca         1 AXI      -0.246609
     27 C21        -39.7790   -17.9180   -47.3740 ca         1 AXI      -0.093009
     28 C22        -39.8430   -16.5950   -47.8120 ca         1 AXI      -0.237609
     29 H1         -36.7640    -8.8750   -54.7360 hn         1 AXI       0.313591
     30 H2         -35.0710    -7.4200   -55.3660 h1         1 AXI       0.042991
     31 H3         -36.0880    -6.0180   -55.0450 h1         1 AXI       0.042991
     32 H4         -35.3220    -6.8850   -53.7000 h1         1 AXI       0.042991
     33 H5         -38.7740    -9.1960   -56.1940 ha         1 AXI       0.136891
     34 H6         -40.5770   -10.8380   -56.3480 ha         1 AXI       0.136991
     35 H7         -42.1120   -11.1950   -54.4410 ha         1 AXI       0.138491
     36 H8         -41.8080    -9.9280   -52.3660 ha         1 AXI       0.146791
     37 H9         -39.0190   -10.6580   -51.2290 ha         1 AXI       0.154491
     38 H10        -39.4550   -12.3860   -49.5640 ha         1 AXI       0.142891
     39 H11        -41.4900    -7.8320   -49.1320 ha         1 AXI       0.150891
     40 H12        -42.6280    -9.0720   -46.7420 hn         1 AXI       0.484391
     41 H13        -41.5270   -13.4120   -45.8260 ha         1 AXI       0.131691
     42 H14        -40.0620   -14.0340   -48.4170 ha         1 AXI       0.160791
     43 H15        -41.0890   -17.4110   -44.2950 h4         1 AXI       0.022791
     44 H16        -40.1990   -19.2510   -45.7310 ha         1 AXI       0.143791
     45 H17        -39.3900   -18.6900   -48.0210 ha         1 AXI       0.138191
     46 H18        -39.5100   -16.3540   -48.8020 ha         1 AXI       0.143591
@<TRIPOS>BOND
     1     1     2 2   
     2     2     3 1   
     3     2     5 1   
     4     3     4 1   
     5     3    29 1   
     6     4    30 1   
     7     4    31 1   
     8     4    32 1   
     9     5     6 ar  
    10     5     9 ar  
    11     6     7 ar  
    12     6    33 1   
    13     7     8 ar  
    14     7    34 1   
    15     8    10 ar  
    16     8    35 1   
    17     9    10 ar  
    18     9    11 1   
    19    10    36 1   
    20    11    12 1   
    21    12    13 ar  
    22    12    15 ar  
    23    13    14 ar  
    24    13    37 1   
    25    14    20 ar  
    26    14    38 1   
    27    15    16 ar  
    28    15    39 1   
    29    16    17 1   
    30    16    20 ar  
    31    17    18 1   
    32    17    40 1   
    33    18    19 2   
    34    19    20 1   
    35    19    21 1   
    36    21    22 2   
    37    21    41 1   
    38    22    23 1   
    39    22    42 1   
    40    23    24 ar  
    41    23    28 ar  
    42    24    25 ar  
    43    25    26 ar  
    44    25    43 1   
    45    26    27 ar  
    46    26    44 1   
    47    27    28 ar  
    48    27    45 1   
    49    28    46 1   
@<TRIPOS>SUBSTRUCTURE
     1 AXI         1 TEMP              0 ****  ****    0 ROOT
